this is master.txt.
<<<<<<< HEAD

new line.
=======
>>>>>>> hui@dev
